1_Yearly_simulation_with_lines_losses/ACN_Infrastructure_VLL_Node.Txt

LINE-LINE VOLTAGES BY BUS & NODE

Bus               Node    VLN (kV)   Angle      pu     Base kV 

UTILITY_COMPANY . 1-2     9.9998 /_   30.0    48.076     0.208
   -              2-3     9.9999 /_  -90.0    48.076     0.208
   -              3-1     9.9999 /_  150.0    48.077     0.208
MAIN_SWITCH_PANEL 1-2    0.27651 /_   29.6    1.3294     0.208
   -              2-3    0.27689 /_  -90.3    1.3312     0.208
   -              3-1    0.27715 /_  149.6    1.3324     0.208
DCFC ............ 1-2    0.27651 /_   29.6    1.3294     0.208
   -              2-3    0.27689 /_  -90.3    1.3312     0.208
   -              3-1    0.27715 /_  149.6    1.3324     0.208
SWITCH_PANEL_1 .. 1-2    0.15937 /_   -2.0   0.76618     0.208
   -              2-3    0.15864 /_ -121.4   0.76268     0.208
   -              3-1    0.16037 /_  118.5     0.771     0.208
5 ............... 1-2    0.15852 /_   -2.1    0.7621     0.208
   -              2-3      0.158 /_ -121.4   0.75962     0.208
   -              3-1    0.15978 /_  118.4   0.76817     0.208
17 .............. 1-2    0.15852 /_   -2.1    0.7621     0.208
   -              2-3      0.158 /_ -121.4   0.75962     0.208
   -              3-1    0.15978 /_  118.4   0.76817     0.208
2X19 ............ 1-2    0.15896 /_   -2.2   0.76423     0.208
   -              2-3    0.15821 /_ -121.6   0.76063     0.208
   -              3-1    0.16004 /_  118.4   0.76944     0.208
26 .............. 1-2    0.15824 /_   -2.2   0.76078     0.208
   -              2-3    0.15764 /_ -121.6   0.75788     0.208
   -              3-1    0.15952 /_  118.3    0.7669     0.208
25 .............. 1-2    0.15824 /_   -2.2   0.76078     0.208
   -              2-3    0.15764 /_ -121.6   0.75788     0.208
   -              3-1    0.15952 /_  118.3    0.7669     0.208
32 .............. 1-2    0.15675 /_   -2.3    0.7536     0.208
   -              2-3    0.15703 /_ -121.4   0.75494     0.208
   -              3-1    0.15916 /_  118.0   0.76521     0.208
47 .............. 1-2    0.15787 /_   -2.2     0.759     0.208
   -              2-3    0.15683 /_ -121.8     0.754     0.208
   -              3-1    0.15849 /_  118.3   0.76196     0.208
61 .............. 1-2    0.15675 /_   -2.3    0.7536     0.208
   -              2-3    0.15703 /_ -121.4   0.75494     0.208
   -              3-1    0.15916 /_  118.0   0.76521     0.208
76 .............. 1-2    0.15787 /_   -2.2     0.759     0.208
   -              2-3    0.15683 /_ -121.8     0.754     0.208
   -              3-1    0.15849 /_  118.3   0.76196     0.208
6 ............... 1-2    0.15835 /_   -2.1   0.76128     0.208
   -              2-3     0.1579 /_ -121.4   0.75912     0.208
   -              3-1    0.15965 /_  118.4   0.76755     0.208
7 ............... 1-2    0.15823 /_   -2.1    0.7607     0.208
   -              2-3    0.15785 /_ -121.4    0.7589     0.208
   -              3-1    0.15954 /_  118.4   0.76704     0.208
8 ............... 1-2    0.15817 /_   -2.1   0.76042     0.208
   -              2-3    0.15783 /_ -121.4    0.7588     0.208
   -              3-1    0.15949 /_  118.4   0.76679     0.208
1 ............... 1-2    0.15846 /_   -2.1   0.76185     0.208
   -              2-3    0.15799 /_ -121.4   0.75956     0.208
   -              3-1    0.15977 /_  118.4   0.76811     0.208
9 ............... 1-2     0.1585 /_   -2.1   0.76204     0.208
   -              2-3    0.15795 /_ -121.4   0.75938     0.208
   -              3-1    0.15977 /_  118.4    0.7681     0.208
2 ............... 1-2    0.15829 /_   -2.1   0.76103     0.208
   -              2-3    0.15788 /_ -121.4   0.75905     0.208
   -              3-1    0.15964 /_  118.4   0.76749     0.208
10 .............. 1-2    0.15833 /_   -2.1   0.76122     0.208
   -              2-3    0.15785 /_ -121.4   0.75887     0.208
   -              3-1    0.15964 /_  118.4   0.76748     0.208
3 ............... 1-2    0.15818 /_   -2.1   0.76046     0.208
   -              2-3    0.15784 /_ -121.4   0.75884     0.208
   -              3-1    0.15953 /_  118.4   0.76698     0.208
11 .............. 1-2    0.15821 /_   -2.1   0.76063     0.208
   -              2-3    0.15784 /_ -121.4   0.75885     0.208
   -              3-1    0.15949 /_  118.4   0.76679     0.208
4 ............... 1-2    0.15812 /_   -2.1   0.76017     0.208
   -              2-3    0.15782 /_ -121.4   0.75873     0.208
   -              3-1    0.15948 /_  118.4   0.76673     0.208
12 .............. 1-2    0.15815 /_   -2.0   0.76035     0.208
   -              2-3    0.15782 /_ -121.4   0.75874     0.208
   -              3-1    0.15944 /_  118.4   0.76654     0.208
18 .............. 1-2    0.15835 /_   -2.1   0.76128     0.208
   -              2-3     0.1579 /_ -121.4   0.75912     0.208
   -              3-1    0.15965 /_  118.4   0.76755     0.208
19 .............. 1-2    0.15823 /_   -2.1    0.7607     0.208
   -              2-3    0.15785 /_ -121.4    0.7589     0.208
   -              3-1    0.15954 /_  118.4   0.76704     0.208
20 .............. 1-2    0.15817 /_   -2.1   0.76042     0.208
   -              2-3    0.15783 /_ -121.4    0.7588     0.208
   -              3-1    0.15949 /_  118.4   0.76679     0.208
13 .............. 1-2    0.15846 /_   -2.1   0.76185     0.208
   -              2-3    0.15799 /_ -121.4   0.75956     0.208
   -              3-1    0.15977 /_  118.4   0.76811     0.208
21 .............. 1-2     0.1585 /_   -2.1   0.76204     0.208
   -              2-3    0.15795 /_ -121.4   0.75938     0.208
   -              3-1    0.15977 /_  118.4    0.7681     0.208
14 .............. 1-2    0.15829 /_   -2.1   0.76103     0.208
   -              2-3    0.15788 /_ -121.4   0.75905     0.208
   -              3-1    0.15964 /_  118.4   0.76749     0.208
22 .............. 1-2    0.15833 /_   -2.1   0.76122     0.208
   -              2-3    0.15785 /_ -121.4   0.75887     0.208
   -              3-1    0.15964 /_  118.4   0.76748     0.208
15 .............. 1-2    0.15818 /_   -2.1   0.76046     0.208
   -              2-3    0.15784 /_ -121.4   0.75884     0.208
   -              3-1    0.15953 /_  118.4   0.76698     0.208
23 .............. 1-2    0.15821 /_   -2.1   0.76063     0.208
   -              2-3    0.15784 /_ -121.4   0.75885     0.208
   -              3-1    0.15949 /_  118.4   0.76679     0.208
16 .............. 1-2    0.15812 /_   -2.1   0.76017     0.208
   -              2-3    0.15782 /_ -121.4   0.75873     0.208
   -              3-1    0.15948 /_  118.4   0.76673     0.208
24 .............. 1-2    0.15815 /_   -2.0   0.76035     0.208
   -              2-3    0.15782 /_ -121.4   0.75874     0.208
   -              3-1    0.15944 /_  118.4   0.76654     0.208
33 .............. 1-2    0.15614 /_   -2.4   0.75068     0.208
   -              2-3    0.15676 /_ -121.3   0.75366     0.208
   -              3-1    0.15901 /_  118.0   0.76449     0.208
34 .............. 1-2    0.15571 /_   -2.4   0.74858     0.208
   -              2-3    0.15655 /_ -121.2   0.75264     0.208
   -              3-1     0.1589 /_  117.9   0.76395     0.208
35 .............. 1-2    0.15544 /_   -2.4    0.7473     0.208
   -              2-3    0.15639 /_ -121.2   0.75186     0.208
   -              3-1    0.15882 /_  117.9   0.76357     0.208
36 .............. 1-2    0.15534 /_   -2.5   0.74682     0.208
   -              2-3    0.15628 /_ -121.2   0.75133     0.208
   -              3-1    0.15878 /_  117.9   0.76336     0.208
27 .............. 1-2     0.1567 /_   -2.3   0.75336     0.208
   -              2-3    0.15701 /_ -121.4   0.75487     0.208
   -              3-1    0.15915 /_  118.0   0.76515     0.208
37 .............. 1-2     0.1567 /_   -2.3   0.75336     0.208
   -              2-3    0.15701 /_ -121.4   0.75487     0.208
   -              3-1    0.15915 /_  118.0   0.76515     0.208
28 .............. 1-2    0.15609 /_   -2.4   0.75044     0.208
   -              2-3    0.15675 /_ -121.3    0.7536     0.208
   -              3-1      0.159 /_  118.0   0.76444     0.208
38 .............. 1-2    0.15609 /_   -2.4   0.75044     0.208
   -              2-3    0.15675 /_ -121.3    0.7536     0.208
   -              3-1      0.159 /_  118.0   0.76444     0.208
29 .............. 1-2    0.15566 /_   -2.4   0.74834     0.208
   -              2-3    0.15654 /_ -121.2   0.75257     0.208
   -              3-1    0.15889 /_  117.9    0.7639     0.208
39 .............. 1-2    0.15566 /_   -2.4   0.74834     0.208
   -              2-3    0.15654 /_ -121.2   0.75257     0.208
   -              3-1    0.15889 /_  117.9    0.7639     0.208
30 .............. 1-2    0.15539 /_   -2.4   0.74706     0.208
   -              2-3    0.15637 /_ -121.2    0.7518     0.208
   -              3-1    0.15881 /_  117.9   0.76352     0.208
40 .............. 1-2    0.15539 /_   -2.4   0.74706     0.208
   -              2-3    0.15637 /_ -121.2    0.7518     0.208
   -              3-1    0.15881 /_  117.9   0.76352     0.208
31 .............. 1-2    0.15529 /_   -2.5   0.74658     0.208
   -              2-3    0.15626 /_ -121.2   0.75127     0.208
   -              3-1    0.15877 /_  117.9   0.76331     0.208
41 .............. 1-2    0.15533 /_   -2.5   0.74677     0.208
   -              2-3    0.15623 /_ -121.2   0.75109     0.208
   -              3-1    0.15876 /_  117.9   0.76329     0.208
48 .............. 1-2    0.15772 /_   -2.2   0.75828     0.208
   -              2-3    0.15651 /_ -121.8   0.75247     0.208
   -              3-1    0.15807 /_  118.3   0.75994     0.208
49 .............. 1-2    0.15761 /_   -2.2   0.75775     0.208
   -              2-3     0.1563 /_ -121.9   0.75143     0.208
   -              3-1    0.15776 /_  118.4   0.75845     0.208
50 .............. 1-2    0.15754 /_   -2.2   0.75743     0.208
   -              2-3    0.15618 /_ -121.9   0.75087     0.208
   -              3-1    0.15756 /_  118.4    0.7575     0.208
51 .............. 1-2    0.15752 /_   -2.2    0.7573     0.208
   -              2-3    0.15616 /_ -121.9   0.75079     0.208
   -              3-1    0.15747 /_  118.4   0.75709     0.208
42 .............. 1-2    0.15786 /_   -2.2   0.75895     0.208
   -              2-3    0.15678 /_ -121.8   0.75376     0.208
   -              3-1    0.15847 /_  118.3    0.7619     0.208
52 .............. 1-2    0.15786 /_   -2.2   0.75893     0.208
   -              2-3    0.15682 /_ -121.8   0.75394     0.208
   -              3-1    0.15844 /_  118.3   0.76172     0.208
43 .............. 1-2    0.15771 /_   -2.2   0.75822     0.208
   -              2-3    0.15646 /_ -121.8   0.75223     0.208
   -              3-1    0.15805 /_  118.4   0.75987     0.208
53 .............. 1-2    0.15771 /_   -2.2   0.75821     0.208
   -              2-3     0.1565 /_ -121.8   0.75242     0.208
   -              3-1    0.15802 /_  118.3   0.75969     0.208
44 .............. 1-2     0.1576 /_   -2.2    0.7577     0.208
   -              2-3    0.15625 /_ -121.9   0.75118     0.208
   -              3-1    0.15774 /_  118.4   0.75838     0.208
54 .............. 1-2     0.1576 /_   -2.2   0.75768     0.208
   -              2-3    0.15629 /_ -121.9   0.75137     0.208
   -              3-1    0.15771 /_  118.4   0.75821     0.208
45 .............. 1-2    0.15753 /_   -2.2   0.75737     0.208
   -              2-3    0.15613 /_ -121.9   0.75063     0.208
   -              3-1    0.15755 /_  118.4   0.75744     0.208
55 .............. 1-2    0.15753 /_   -2.2   0.75736     0.208
   -              2-3    0.15617 /_ -121.9   0.75081     0.208
   -              3-1    0.15751 /_  118.4   0.75726     0.208
46 .............. 1-2     0.1575 /_   -2.2   0.75724     0.208
   -              2-3    0.15615 /_ -121.9   0.75074     0.208
   -              3-1    0.15742 /_  118.4   0.75685     0.208
62 .............. 1-2    0.15614 /_   -2.4   0.75068     0.208
   -              2-3    0.15676 /_ -121.3   0.75366     0.208
   -              3-1    0.15901 /_  118.0   0.76449     0.208
63 .............. 1-2    0.15571 /_   -2.4   0.74858     0.208
   -              2-3    0.15655 /_ -121.2   0.75264     0.208
   -              3-1     0.1589 /_  117.9   0.76395     0.208
64 .............. 1-2    0.15544 /_   -2.4    0.7473     0.208
   -              2-3    0.15639 /_ -121.2   0.75186     0.208
   -              3-1    0.15882 /_  117.9   0.76357     0.208
65 .............. 1-2    0.15534 /_   -2.5   0.74682     0.208
   -              2-3    0.15628 /_ -121.2   0.75133     0.208
   -              3-1    0.15878 /_  117.9   0.76336     0.208
56 .............. 1-2     0.1567 /_   -2.3   0.75336     0.208
   -              2-3    0.15701 /_ -121.4   0.75487     0.208
   -              3-1    0.15915 /_  118.0   0.76515     0.208
66 .............. 1-2     0.1567 /_   -2.3   0.75336     0.208
   -              2-3    0.15701 /_ -121.4   0.75487     0.208
   -              3-1    0.15915 /_  118.0   0.76515     0.208
57 .............. 1-2    0.15609 /_   -2.4   0.75044     0.208
   -              2-3    0.15675 /_ -121.3    0.7536     0.208
   -              3-1      0.159 /_  118.0   0.76444     0.208
67 .............. 1-2    0.15609 /_   -2.4   0.75044     0.208
   -              2-3    0.15675 /_ -121.3    0.7536     0.208
   -              3-1      0.159 /_  118.0   0.76444     0.208
58 .............. 1-2    0.15566 /_   -2.4   0.74834     0.208
   -              2-3    0.15654 /_ -121.2   0.75257     0.208
   -              3-1    0.15889 /_  117.9    0.7639     0.208
68 .............. 1-2    0.15566 /_   -2.4   0.74834     0.208
   -              2-3    0.15654 /_ -121.2   0.75257     0.208
   -              3-1    0.15889 /_  117.9    0.7639     0.208
59 .............. 1-2    0.15539 /_   -2.4   0.74706     0.208
   -              2-3    0.15637 /_ -121.2    0.7518     0.208
   -              3-1    0.15881 /_  117.9   0.76352     0.208
69 .............. 1-2    0.15539 /_   -2.4   0.74706     0.208
   -              2-3    0.15637 /_ -121.2    0.7518     0.208
   -              3-1    0.15881 /_  117.9   0.76352     0.208
60 .............. 1-2    0.15529 /_   -2.5   0.74658     0.208
   -              2-3    0.15626 /_ -121.2   0.75127     0.208
   -              3-1    0.15877 /_  117.9   0.76331     0.208
70 .............. 1-2    0.15533 /_   -2.5   0.74677     0.208
   -              2-3    0.15623 /_ -121.2   0.75109     0.208
   -              3-1    0.15876 /_  117.9   0.76329     0.208
77 .............. 1-2    0.15772 /_   -2.2   0.75828     0.208
   -              2-3    0.15651 /_ -121.8   0.75247     0.208
   -              3-1    0.15807 /_  118.3   0.75994     0.208
78 .............. 1-2    0.15761 /_   -2.2   0.75775     0.208
   -              2-3     0.1563 /_ -121.9   0.75143     0.208
   -              3-1    0.15776 /_  118.4   0.75845     0.208
79 .............. 1-2    0.15754 /_   -2.2   0.75743     0.208
   -              2-3    0.15618 /_ -121.9   0.75087     0.208
   -              3-1    0.15756 /_  118.4    0.7575     0.208
80 .............. 1-2    0.15752 /_   -2.2    0.7573     0.208
   -              2-3    0.15616 /_ -121.9   0.75079     0.208
   -              3-1    0.15747 /_  118.4   0.75709     0.208
71 .............. 1-2    0.15786 /_   -2.2   0.75895     0.208
   -              2-3    0.15678 /_ -121.8   0.75376     0.208
   -              3-1    0.15847 /_  118.3    0.7619     0.208
81 .............. 1-2    0.15786 /_   -2.2   0.75893     0.208
   -              2-3    0.15682 /_ -121.8   0.75394     0.208
   -              3-1    0.15844 /_  118.3   0.76172     0.208
72 .............. 1-2    0.15771 /_   -2.2   0.75822     0.208
   -              2-3    0.15646 /_ -121.8   0.75223     0.208
   -              3-1    0.15805 /_  118.4   0.75987     0.208
82 .............. 1-2    0.15771 /_   -2.2   0.75821     0.208
   -              2-3     0.1565 /_ -121.8   0.75242     0.208
   -              3-1    0.15802 /_  118.3   0.75969     0.208
73 .............. 1-2     0.1576 /_   -2.2    0.7577     0.208
   -              2-3    0.15625 /_ -121.9   0.75118     0.208
   -              3-1    0.15774 /_  118.4   0.75838     0.208
83 .............. 1-2     0.1576 /_   -2.2   0.75768     0.208
   -              2-3    0.15629 /_ -121.9   0.75137     0.208
   -              3-1    0.15771 /_  118.4   0.75821     0.208
74 .............. 1-2    0.15753 /_   -2.2   0.75737     0.208
   -              2-3    0.15613 /_ -121.9   0.75063     0.208
   -              3-1    0.15755 /_  118.4   0.75744     0.208
84 .............. 1-2    0.15753 /_   -2.2   0.75736     0.208
   -              2-3    0.15617 /_ -121.9   0.75081     0.208
   -              3-1    0.15751 /_  118.4   0.75726     0.208
75 .............. 1-2     0.1575 /_   -2.2   0.75724     0.208
   -              2-3    0.15615 /_ -121.9   0.75074     0.208
   -              3-1    0.15742 /_  118.4   0.75685     0.208
SWITCH_PANEL_2 .. 1-2    0.20786 /_   -0.4   0.99931     0.208
   -              2-3    0.20767 /_ -120.3    0.9984     0.208
   -              3-1    0.20814 /_  119.7    1.0007     0.208
